11
ABC 20.000 5.222 6.031
  H  2.9511341151  1.2986179214  2.0687351408
  H  4.0189849780  2.0237200504  1.0684299686
  O  3.6013024600  1.1516070983  1.3233030935
 Au  0.0000000000  0.0000000000  0.0000000000
 Au  0.0000000000  0.0000000000  3.0155867401
 Au  0.0000000000  2.6111560658  1.5080350826
 Au  0.0000000000  2.6111560658  4.5231383976
 Ne 10.0000000000  0.0000000000  0.0000000000
 Ne 10.0000000000  0.0000000000  3.0155867401
 Ne 10.0000000000  2.6111560658  1.5080350826
 Ne 10.0000000000  2.6111560658  4.5231383976
